VERS 00000001 4
HEAD 00001147 <?xml version="1.0"?>
<?xml-stylesheet type="text/xsl" href="/resources/transform.xslt"?><header><componentName>correlator</componentName><version>9.10.0.3.284318</version><build>rel/9.10.0.x@284318</build><buildPlatform>amd64-win</buildPlatform><platform>Windows 8</platform><cputype>GenuineIntel family 6 model 5 stepping 1 Intel(R) Core(TM) i5-4278U CPU @ 2.60GHz</cputype><cpus>1</cpus><javaEnabled>false</javaEnabled><replayLogMode>inputLog</replayLogMode><args><arg>C:\SoftwareAG\Apama\bin\correlator</arg><arg>-p</arg><arg>45647</arg><arg>-f</arg><arg>correlator.log</arg><arg>--inputLog</arg><arg>C:\Users\moray\Development\cycle-monitor\test\testcases\CycleMonitor_cor_009\Output\win32\correlator-input.log</arg></args><environment><variable>TMP=C:\Users\moray\AppData\Local\Temp</variable><variable>COMPUTERNAME=WIN-0RKCERDGPP2</variable><variable>APAMA_HOME=C:\SoftwareAG\Apama</variable><variable>USERDOMAIN=WIN-0RKCERDGPP2</variable><variable>PSMODULEPATH=C:\Windows\system32\WindowsPowerShell\v1.0\Modules\</variable><variable>COMMONPROGRAMFILES=C:\Program Files\Common Files</variable><variable>PROCESSOR_IDENTIFIER=Intel64 Family 6 Model 69 Stepping 1, GenuineIntel</variable><variable>LOGONSERVER=\\WIN-0RKCERDGPP2</variable><variable>PROGRAMFILES=C:\Program Files</variable><variable>APAMA_LIBRARY_VERSION=9.10</variable><variable>PATH=C:\SoftwareAG\Apama\third_party\python;C:\Users\Public\SoftwareAG\ApamaWork_9.10\lib;C:\SoftwareAG\Apama\bin;C:\SoftwareAG\Apama\adapters\bin;C:\SoftwareAG\jvm\jvm\jre\bin\server;C:\SoftwareAG\jvm\jvm\jre\bin;C:\SoftwareAG\Apama\third_party\apache_ant\bin;C:\SoftwareAG\Apama\third_party\python;C:\SoftwareAG\jvm\jvm\jre\..\bin;C:\ProgramData\Oracle\Java\javapath;C:\Windows\system32;C:\Windows;C:\Windows\System32\Wbem;C:\Windows\System32\WindowsPowerShell\v1.0\;C:\Program Files (x86)\Notepad++\</variable><variable>SYSTEMROOT=C:\Windows</variable><variable>APAMA_ENVSET=9.10:C:\SoftwareAG\Apama:amd64-win</variable><variable>PROGRAMFILES(X86)=C:\Program Files (x86)</variable><variable>TK_LIBRARY=C:\SoftwareAG\Apama\third_party\python\tcl\tk8.5</variable><variable>APAMA_CORRELATOR_HOME=C:\SoftwareAG\Apama</variable><variable>APAMA_WORK=C:\Users\Public\SoftwareAG\ApamaWork_9.10</variable><variable>TEMP=C:\Users\moray\AppData\Local\Temp</variable><variable>COMMONPROGRAMFILES(X86)=C:\Program Files (x86)\Common Files</variable><variable>APAMA_JRE=C:\SoftwareAG\jvm\jvm\jre</variable><variable>PROCESSOR_ARCHITECTURE=AMD64</variable><variable>APAMA_PLATFORM=amd64-win</variable><variable>TIX_LIBRARY=C:\SoftwareAG\Apama\third_party\python\tcl\tix8.4.3</variable><variable>ALLUSERSPROFILE=C:\ProgramData</variable><variable>LOCALAPPDATA=C:\Users\moray\AppData\Local</variable><variable>HOMEPATH=\Users\moray</variable><variable>USERDOMAIN_ROAMINGPROFILE=WIN-0RKCERDGPP2</variable><variable>JAVA_HOME=C:\SoftwareAG\jvm\jvm</variable><variable>PROGRAMW6432=C:\Program Files</variable><variable>USERNAME=moray</variable><variable>APAMA_MANAGEMENT_HOME=C:\SoftwareAG\Apama</variable><variable>PROMPT=$P$G</variable><variable>COMSPEC=C:\Windows\system32\cmd.exe</variable><variable>APAMA_COMMON_JRE=C:\SoftwareAG\jvm\jvm\jre</variable><variable>PROGRAMDATA=C:\ProgramData</variable><variable>PYTHONPATH=C:\SoftwareAG\Apama\third_party\python\Lib\site-packages</variable><variable>TCL_LIBRARY=C:\SoftwareAG\Apama\third_party\python\tcl\tcl8.5</variable><variable>TEAMCITY_DATA_PATH=C:\ProgramData\JetBrains\TeamCity</variable><variable>SESSIONNAME=Console</variable><variable>PATHEXT=.COM;.EXE;.BAT;.CMD;.VBS;.VBE;.JS;.JSE;.WSF;.WSH;.MSC</variable><variable>APAMA_DEV_HOME=C:\SoftwareAG\Apama</variable><variable>FP_NO_HOST_CHECK=NO</variable><variable>WINDIR=C:\Windows</variable><variable>COMMONPROGRAMW6432=C:\Program Files\Common Files</variable><variable>PROCESSOR_REVISION=4501</variable><variable>HOMEDRIVE=C:</variable><variable>APPDATA=C:\Users\moray\AppData\Roaming</variable><variable>ANT_HOME=C:\SoftwareAG\Apama\third_party\apache_ant</variable><variable>SYSTEMDRIVE=C:</variable><variable>NUMBER_OF_PROCESSORS=1</variable><variable>PROCESSOR_LEVEL=6</variable><variable>JRE_HOME=C:\SoftwareAG\jvm\jvm\jre</variable><variable>APAMA_DASHBOARD_HOME=C:\SoftwareAG\Apama</variable><variable>OS=Windows_NT</variable><variable>PUBLIC=C:\Users\Public</variable><variable>USERPROFILE=C:\Users\moray</variable></environment><version>9.10.0.3.284318</version></header>
RAND 00000009 842923698
TIME 00000010 1474016706.366,1
TIME 0000000e 1474016706.4,1
TIME 0000000e 1474016706.5,1
CONN 0000003c 6330853567618646350:6330572092641935694 from 127.0.0.1:53164
TIME 0000000e 1474016711.6,1
CONN 0000003e 14826393442096512897:14826392888045600641 from 127.0.0.1:53161
TIME 0000000e 1474016711.7,1
CONN 0000003c 6330853567799787854:6330572092823077198 from 127.0.0.1:53172
TIME 0000000e 1474016711.9,1
MONF 0001252f package com.apama.scenario;

/**
 * This file contains the shared event definitions that are generic across 
 * all Scenarios.  
 *
 * WARNING: 
 *    The event definitions contained in this file form an internal protocol 
 *    and may change between software releases.
 *
 * Notes:
 * 1) The Event definitions contained in this file MUST be considered
 *    as an internal implementation of the communications protocol
 *    between the Apama client API and an Apama server.  As such
 *    these event definitions MUST NOT be considered "stable" and are 
 *    subject to change in any future software release.
 *
 *    The ONLY supported public APIs to the Scenario Service are the 
 *    Java client API (in the com.apama.services.scenario package) and the 
 *    .NET client API (in the Apama.Services.Scenario namespace).  
 *    Customers should not attempt to interface at the event or 
 *    EPL layer. Some events have been changed over time (as 
 *    noted here).
 *
 * 2) Most events now contain an initial field called "scenarioId". This string 
 *    uniquely identifies a scenario inside the correlator, and is used as 
 *    the package name, in several events, and for making up a part of the 
 *    data and control channel names.
 *
 * 3) Events that are intended to be used in a request-response pattern contain
 *    a "messageId" field.  The value of this field must be copied from the 
 *    request event into the response event. The mechanism allows clients to 
 *    match up request-response pairs.
 *
 *
 * $Copyright(c) 2005-2011 Progress Software Corporation (PSC). All rights reserved.$
 * $Copyright (c) 2013-2015 Software AG, Darmstadt, Germany and/or Software AG USA Inc., Reston, VA, USA, and/or its subsidiaries and/or its affiliates and/or their licensors.$
 * Use, reproduction, transfer, publication or disclosure is prohibited except as specifically provided for in your License Agreement with Software AG
 *
 * $Revision: 267710 $
 */

/**
 * Request that a new instance of a specific scenario is created.
 *
 * See also: Created(), Acknowledge()
 *
 * Direction: From the client to the correlator.
 *
 * Response: Acknowledge()
 */
event Create {
	string scenarioId;                   // the unique name of the scenario
	integer messageId;                   // the unique message ID (for request-response matching)
	string owner;                        // the owner (user) of the instance.
	sequence<string> inputFieldValues;   // sequence of INPUT field values in string form
}

/**
 * Notifies all interested clients that a new instance of a specific 
 * scenario has been created. 
 * The event provides the owner (user), initial state, and initial values for 
 * all input fields and all output fields.
 *
 * See also: Create()
 *
 * Direction: From the correlator to the client.
 *
 * Channel: <scenarioId>.Data and <scenarioId>.Data.Raw
 */
event Created { 
	string scenarioId;                   // the unique name of the scenario
	integer messageId;                   // the unique message ID (for request-response matching)
	integer scenarioInstanceId;          // the ID of the scenario instance
	string owner;                        // the owner (user) of the instance.
	string state;                        // the initial state of the instance.
	sequence<string> inputFieldValues;   // sequence of INPUT field values in string form
	sequence<string> outputFieldValues;  // sequence of OUTPUT field values in string form
}


/**
 * Notifies the interested clients of child scenarios created from
 * a parent scenario.
 *
 * Direction: Internal in the correlator
 *
 * Channel: <none>
 */
event ParentChildRelationship {
	string parentScenarioId;
	integer parentScenarioInstanceId;
	string childScenarioId;
	integer childScenarioInstanceId;
}


/**
 * Request that a specific instance of a specific scenario is edited (the input 
 * field values are changed).
 *
 * See also: Edited(), Acknowledge()
 *
 * Direction: From the client to the correlator.
 *
 * Response: Acknowledge()
 */
event Edit { 
	string scenarioId;                   // the unique name of the scenario
	integer messageId;                   // the unique message ID (for request-response matching)
	integer scenarioInstanceId;          // the ID of the scenario instance
	sequence<string> inputFieldValues;   // sequence of INPUT field values in string form
}


/**
 * Notifies all interested clients that a specific instance of a specific 
 * scenario has been edited (the input field values have changed).
 *
 * See also: Edit()
 *
 * Direction: From the correlator to the client.
 *
 * Channel: <scenarioId>.Data and <scenarioId>.Data.Raw
 */
event Edited { 
	string scenarioId;                   // the unique name of the scenario
	integer messageId;                   // the unique message ID (for request-response matching)
	integer scenarioInstanceId;          // the ID of the scenario instance
	sequence<string> inputFieldValues;   // sequence of INPUT field values in string form
	sequence<string> outputFieldValues;  // sequence of OUTPUT field values in string form
}


/**
 * Request that a specific instance of a specific scenario is deleted.
 *
 * See also: Deleted(), Acknowledge()
 *
 * Direction: From the client to the correlator.
 *
 * Response: Acknowledge()
 */
event Delete {
	string scenarioId;                   // the unique name of the scenario
	integer messageId;                   // the unique message ID (for request-response matching)
	integer scenarioInstanceId;          // the ID of the scenario instance
}


/**
 * Notifies all interested clients that a specific instance of a specific 
 * scenario has been deleted.
 *
 * See also: Delete()
 *
 * Direction: From the correlator to the client.
 *
 * Channel: <scenarioId>.Data and <scenarioId>.Data.Raw
 */
event Deleted {
	string scenarioId;                   // the unique name of the scenario
	integer messageId;                   // the unique message ID (for request-response matching)
	integer scenarioInstanceId;          // the ID of the scenario instance
}


/**
 * Indicates that a specific instance of a specific scenario has died.
 * This is sent as a result of a scenario instance use of MonitorScript ondie.
 * This occurs for any of deleting a running scenario, a scenario failing, or 
 * entering the end state.
 *
 * Direction: From the correlator to the client.
 *
 * Channel: <scenarioId>.Data and <scenarioId>.Data.Raw
 */
event InstanceDied {
	string scenarioId;                   // the unique name of the scenario
	integer scenarioInstanceId;          // the ID of the scenario instance
}


/**
 * Contains updated scenario instance output fields.
 * Note that this is the ONLY event type that is sendted on the 
 * "<scenarioId>.Data" channel.
 *
 * Direction: From the correlator to the client.
 *
 * Channel: <scenarioId>.Data and <scenarioId>.Data.Raw
 */
event Update { 
	string scenarioId;                   // the unique name of the scenario
	integer scenarioInstanceId;          // the ID of the scenario instance
	float timeStamp;                     // the time of the update (seconds since epoch)
	sequence<string> outputFieldValues;  // sequence of OUTPUT field values in string form
}


/**
 * A general Acknowledgement event that is the "response" to various "request"
 * events such as Create, Edit, Delete.
 *
 * Direction: From the correlator to the client.
 *
 * Channel: <scenarioId>.Control
 */
event Acknowledge { 
	string scenarioId;                   // the unique name of the scenario
	integer messageId;                   // the unique message ID (for request-response matching)
	integer scenarioInstanceId;          // the id of the scenario instance
	boolean success;                     // boolean indication of success
	sequence<string> outputFieldValues;  // sequence of the OUTPUT field values in string form, 
	                                     //   or an empty sequence if success = false
}


/**
 * Indicates that a specific instance of a specific scenario has changed 
 * state, where valid states include "ENDED", "FAILED", "RUNNING".
 *
 * Direction: From the correlator to the client.
 *
 * Channel: <scenarioId>.Data and <scenarioId>.Data.Raw
 */
event StateChange { 
	string scenarioId;                   // the unique name of the scenario.
	integer scenarioInstanceId;          // the ID of the scenario instance.
	string state;                        // the new state.
}


/**
 * Request that each scenario loaded in the correlator send its meta
 * information out on the supplied channel. When all scenarios have
 * sent out this information, a final RequestScenariosDone event will
 * be sent on the same channel.
 *
 * As soon as this event is received, a RequestScenariosAck will be
 * sent on the same channel so client can stop resending the RequestScenarios
 * event.
 *
 * See also: Scenario, RequestScenariosDone, RequestScenariosAck
 *
 * Direction: From the client to the correlator.
 *
 * Response: Scenario() from each loaded scenario.
 */
event RequestScenarios { 
	// renamed for clarity - was Request
	string channel;                      // Name of the private response channel.
}


/**
 * This is a simple marker event that is sent by the correlator to indicate 
 * that it has finished sending all of the Scenario events in response
 * to a RequestScenarios event.
 * 
 * See also: RequestScenarios, Scenario.
 *
 * Direction: From the correlator to the client.
 *
 * Channel: The private channel that was specified in the RequestScenarios event.
 */
event RequestScenariosDone {}

/* This is a simple ack event that is sent by the correlator to indicate the
 * RequestScenarios event is received and the request is being processed
 *
 * See also: RequestScenarios
 *
 * Direction: From the correlator to the client.
 *
 * Channel: The private channel that was specified in the RequestScenarios event.
 */
event RequestScenariosAck {}

/**
 * Request that each instance of the specified scenario send an Instance event 
 * out on the supplied channel. When all instances for the scenario have been 
 * sent out, a final RequestInstancesDone event will be sent on the same channel.
 *
 * See also: Instance, RequestInstancesDone
 *
 * Direction: From the client to the correlator.
 *
 * Response: Instance() from each scenario instance.
 */
event RequestInstancesOnChannel { 
	string scenarioId;                   // Identifier of the scenario for which to return instances. 
	integer messageId;                   // the unique message ID (for request-response matching)
	string channel;                      // Name of the private response channel.
}

/**
 * Request that each instance for the specified user of the specified scenario
 * send an Instance event out on the supplied channel. When all instances for
 * the scenario have been sent out, a final RequestInstancesDone event will be 
 * sent on the same channel.
 *
 * See also: Instance, RequestInstancesDone
 *
 * Direction: From the client to the correlator.
 *
 * Response: Instance() from each scenario instance.
 */
event RequestInstancesOnChannelByUser { 
	string scenarioId;                   // Identifier of the scenario for which to return instances. 
	integer messageId;                   // the unique message ID (for request-response matching)
	string channel;                      // Name of the private response channel.
	string owner;                        // the username to filter by
}


/**
 * This is a simple marker event that is sent by the correlator to indicate 
 * that it has finished sending all of the Instance events in response
 * to a RequestInstancesInternal event.
 * 
 * See also: RequestInstancesInternal, Scenario.
 *
 * Direction: From the correlator to the client.
 *
 * Channel: A unique private channel as specified by the client in a 
 *          RequestScenariosOnChannel event.
 *
 *          Note that previously it would have been on <scenarioId>.Data and 
 *          <scenarioId>.Data.Raw, but that behaviour is now deprecated.
 */
event RequestInstancesDone {
	string scenarioId;                   // Identifier of the scenario for instances were returned. 	
	integer messageId;                   // the unique message ID (for request-response matching)
}


/**
 * Describes the meta-information about a scenario that is loaded in the 
 * correlator.
 * 
 * See also: RequestScenarios, RequestScenariosDone, ScenarioUnloaded
 * 
 * Direction: From correlator to client.
 *
 * Channel:   1) com.apama.scenario to broadcast when loaded.
 *            2) A unique private channel as specified by the client in a 
 *               RequestScenarios event.
 *
 * This event has gained the executionMode field in Apama 4.2
 */
event Scenario {
	string scenarioId;                   // unique identifier for Scenario, e.g. Scenario_statistical$002darbitrage
	string displayName;                  // user-specified name for Scenario, e.g. statistical-arbitrage
	string description;                  // description of the Scenario
	sequence<string> inputNames;         // input parameter names
	sequence<string> inputTypes;         // input parameter types
	sequence<string> inputConstraints;   // input parameter contraints
	sequence<string> inputDefaults;      // input parameter default values
	sequence<string> outputNames;        // output parameter names
	sequence<string> outputTypes;        // output parameter types
	integer executionMode;               // 0 = serial, 1 = parallel, 2 = parallel child. New as of 4.2
	dictionary<string, string> extraParams; // Additional parameters
}



/**
 * Indicates that a specific Scenario definition is being unloaded.
 *
 * Direction: From the correlator to the client.
 *
 * Channel: <scenarioId>.Control
 */
event ScenarioUnloaded { 
	string scenarioId;                   // the unique name of the scenario
}

/**
 * Provides a dump of the current state of a scenario instance.
 * The event definition is identical to the Created event, and includes the 
 * owner (user), initial state, and current values for all input fields and 
 * all output fields.
 *
 * Instance events are sent in response to RequestInstancesOnChannel event 
 * and the deprecated RequestInstancesInternal event; 
 *
 * See also: RequestInstancesOnChannel, RequestInstancesDone, RequestInstancesInternal
 *
 * Direction: From the correlator to the client.
 *
 * Channel: A unique private channel as specified by the client in a 
 *          RequestScenariosOnChannel event.
 *
 *          Note that previously it would have been on <scenarioId>.Data and 
 *          <scenarioId>.Data.Raw, but that behaviour is now deprecated.
 */
event Instance {
	string scenarioId;                   // the unique name of the scenario. 
	integer messageId;                   // the unique message ID (for request-response matching)
	integer scenarioInstanceId;          // the ID of the scenario instance. 
	string owner;                        // the owner (user) of the instance.
	string state;                        // the initial state of the instance.
	sequence<string> inputFieldValues;   // sequence of INPUT field values in string form. 
	sequence<string> outputFieldValues;  // sequence of OUTPUT field values in string form. 
}


/**
 * Indicates this shared MonitorScript has been loaded.
 *
 * Direction: From the correlator to the client.
 *
 * Channel: com.apama.scenario to broadcast when loaded.
 */
event ScenarioServiceLoaded { 
}

/**
 * Indicates this shared MonitorScript is being unloaded.
 *
 * Direction: From the correlator to the client.
 *
 * Channel: com.apama.scenario to broadcast when unloaded.
 */
event ScenarioServiceUnloaded { 
}


/**
 * Set the period over which updates will be queued and coalesced before being
 * sent out on the data channel. Defaults to zero, which means they won't be
 * queued. If it is negative then we won't send any updates on the data channel.
 * This event is deprecated and the ConfigureUpdates event should be used 
 * instead (see below)
 */
event SetThrottlingPeriod {
	float period;   // The period in seconds. Default zero.
}


/**
 * Configures how updates are sent from scenarios.
 * Each scenario is controlled by two configurations - a global default,
 * and an optional per scenario configuration.  The per scenario
 * configuration takes precedence over the global default.
 * The configuration is made up of a number of entries in 
 * the configuration dictionary. The ConfigureUpdate event 
 * is merged into any previous configuration.
 *
 * Global configuration can be modified by specifying an empty string 
 * for scenarioId, and empty values remove values.
 */
event ConfigureUpdates {
	/** Specifies the scenario the configuratio will apply to, or use 
		empty string "" to specify a global default. 
	*/
	string scenarioId;
	/** 
	 * A set of the configurations modified by this event
	 * the key and meaning is one of:
	 * sendThrottled - boolean - whether to send Updates to the 
	 *                           Throttled (.Data) channel (default=true)
	 * throttlePeriod - float - period with which to send Updates. 
	 *                          0.0 means updates are not throttled - 
	 *                          every update is sent on the Throttled 
	 *                          channel. (default=0.0)
	 * sendRaw - boolean - whether to send Updates on the Raw channel 
	 *                     (.Raw) (default=true)
 	 * sendThrottledUser - boolean - whether to send Updates to the 
	 *                     throttled filtered (.Data:username) channel
	 *                     (default=false)
 	 * sendRawUser - boolean - whether to send Updates to the Raw 
	 *                     channel (.Raw:username) (default=false)
	 * routeUpdate - boolean - whether to route Update (and Edited, Deleted) events.
	 * An empty value removes that entry from the configuration
	 */
	dictionary<string,string> configuration;
}

/**
 * Immediately flushes to receivers any scenario Update events that were 
 * waiting for the next throttling period before being sent. 
 * 
 */
event SendQueuedUpdatesNow {
	
}

/* ==========================================================================
 * The following describes INTERNAL event definitions that should not be sent 
 * into the correlator, nor relied upon.
 * ==========================================================================
 */

/**
 * Request that each instance of the specified scenario send an Instance event 
 * out on the scenario Data or Raw channel. When all instances for the scenario
 * have been sent out, a final RequestInstancesDone event will be sent on the 
 * same channel.
 *
 * See also: Instance, RequestInstancesDone, RequestInstancesOnChannel, RequestInstancesOnChannelByUser
 *
 * Direction: From the ScenarioService to the scenario
 *
 * Response: Instance() from each scenario instance, RequestInstancesDone when finished.
 */
event RequestInstancesInternal { 
	string scenarioId;                   // Identifier of the scenario for which to return instances. 
	integer messageId;                   // the unique message ID (for request-response matching)
	string channel;                      // Name of the private response channel.
	boolean internal;                    // if true, events should be routed/ send-to'd the main context
	string owner;                        // owner filter (optional)
	boolean ownerFilter;                 // whether to filter by owner
}

/**
 * A scenario has finished running, but is still discoverable.
 * (i.e. entered end state or failed - but not deleted).
 * Note that this event contains the state as of the last
 * Update/ Edited event - i.e. if an action modified an output variable 
 * and then caused the scenario to fail, the prior modification
 * would not be reflected in this event.
 *
 * This event contains sufficient information for discovery of the
 * scenario instance later
 * 
 * Direction: from scenarios to the ScenarioService sub-monitor (spawned per scenario)
 */
event ScenarioFinished {
	string scenarioId;                   // Identifier of the scenario which has failed. 
	integer scenarioInstanceId;          // the ID of the scenario instance. 
	string owner;                        // the owner (user) of the instance.
	string state;                        // the initial state of the instance.
	sequence<string> inputFieldValues;   // sequence of INPUT field values in string form. 
	sequence<string> outputFieldValues;  // sequence of OUTPUT field values in string form. 
}
/**
 * Only used internally to tell all the scenarios to start routing their
 * meta data (Scenario). It is followed by a sweeper FinishedScenarioRecovery
 * event which indicates that all the scenarios have reported in.
 */
event StartScenarioRecovery {}

/**
 * Sweeper event to indicate that scenario recovery is done. Only used internally.
 */
event FinishedScenarioRecovery {}

/**
 * Trigger discovery of a parallel scenario. Sent from a sub-monitor of
 * ScenarioService to RequestInstancesHandler to create a new sub-monitor.
 */
event RequestInstancesParallel {
	RequestInstancesInternal request;          // the original request event
	dictionary<integer, context> instances;    // all scenario instances and their running context
	integer highestInstanceId;                 // the highest scenarioInstanceId listed in instances (or more accurately, the highest when discovery started)
}

/**
 * Discovery protocol of a parallel scenario. Sent from a scenario instance
 * to RequestInstancesHandler.
 */
event RequestInstancesParallelDone {
	string scenarioId;                   // the unique name of the scenario
	integer messageId;                   // the unique message ID (for request-response matching)
	integer scenarioInstanceId;          // the ID of the scenario instance
}

/**
 * Notification of a new scenario instance
 */
event ParallelStarting {
	string scenarioId;                   // the unique name of the scenario
	integer scenarioInstanceId;          // the ID of the scenario instance
	string owner;                        // the owner of the scenario instance
	context runningCtx;                  // the context the scenario is running in
}

/**
 * Get the current configuration for a given scenario and the default configuration
 */
event GetConfiguration {
	string scenarioId;                   // the unique name of the scenario
}

/**
 * The current configuration for a given scenario and the default configuration
 * @see ConfigureUpdates
 */
event Configuration {
	string scenarioId;                        // the unique name of the scenario
	dictionary<string, string> defaults;      // the global defaults
	dictionary<string, string> configuration; // the scenario configuration (takes precedence)
}


/**
 * An operation has completed. Sent from parallel scenarios to the main context.
 */
event OperationCompleted {
	string scenarioId;
	integer scenarioInstanceId;
	integer messageId;
}

/**
 * Notification that a scenario has loaded a ConfigureUpdates event
 */
event ScenarioProcessedUpdates {
	string scenarioId;
}

/**
 * Request all configuration
 */
event GetAllConfiguration {
	integer requestId;
}

/** 
 * Response all configuration
 */
event AllConfiguration {
	integer requestId;
	dictionary<string, string> defaultConfig;
	dictionary<string, dictionary<string, string> > configurations;
}


/**
 * Library of utiltiy actions
 */
event ScenarioServiceLibrary {

	/**
	 * Get the control channel for a scenario Id. This channel
	 * is always enabled (uses an event set scenario ID)
	 */
	action getControlChannel(string scenarioId) returns string
	{
		return scenarioId+".Control";
	}
	/**
	 * Get the data channel for a scenario ID. This channel 
	 * is enabled by the sendThrottled configuration key and 
	 * the throttlePeriod key (Update events may be throttled)
	 */
	action getDataChannel(string scenarioId) returns string
	{
		return scenarioId+".Data";
	}
	/**
	 * Get the raw channel for a scenario ID. This channel
	 * is enabled by the sendRaw configuration key.
	 */
	action getRawChannel(string scenarioId) returns string
	{
		return scenarioId+".Data.Raw";
	}
	/**
	 * Get the data channel for a scenario Id. This channel 
	 * is enabled by the sendThrottledUser configuration key and 
	 * the throttlePeriod key (Update events may be throttled)
	 */
	action getDataUserChannel(string channel, string owner) returns string
	{
		return channel+":"+owner;
	}
	/**
	 * Get the raw channel for a scenario Id. This channel
	 * is enabled by the sendRawUser configuration key.
	 */
	action getRawUserChannel(string channel, string owner) returns string
	{
		return channel+":"+owner;
	}
	
	/**
	 * Merge configuration. Any entries in updates overwrite entries in configuration.
	 * An empty string value removes the value.
	 * @see ConfigureUpdates
	 */
	action mergeConfiguration(dictionary<string, string> updates, dictionary<string, string> configuration) {
		string k;
		for k in updates.keys() {
			configuration[k]:=updates[k];
			if updates[k]="" then {
				configuration.remove(k);
			}
		}
	}
	
	// implementation note: the defaults for sendThrottled, sendRaw, throttlePeriod, etc are in the following actions:
	/**
	 * Get the sendThrottled value from the given configuration
	 * @see ConfigureUpdates
	 */
	action getSendThrottled(dictionary<string,string> defaults, dictionary<string,string> config) returns boolean {
		string c:=getConfig(defaults, config, "sendThrottled", "true");
		return c = "true";
	}

	/**
	 * Get the sendThrottledUser value from the given configuration
	 * @see ConfigureUpdates
	 */
	action getSendThrottledUser(dictionary<string,string> defaults, dictionary<string,string> config) returns boolean {
		string c:=getConfig(defaults, config, "sendThrottledUser", "false");
		return c = "true";
	}
	
	/**
	 * Get the sendRaw value from the given configuration
	 * @see ConfigureUpdates
	 */
	action getSendRaw(dictionary<string,string> defaults, dictionary<string,string> config) returns boolean {
		string c:=getConfig(defaults, config, "sendRaw", "true");
		return c = "true";
	}
	
	/**
	 * Get the sendRawUser value from the given configuration
	 * @see ConfigureUpdates
	 */
	action getSendRawUser(dictionary<string,string> defaults, dictionary<string,string> config) returns boolean {
		string c:=getConfig(defaults, config, "sendRawUser", "false");
		return c = "true";
	}
	
	/**
	 * Get the throttlePeriod value from the given configuration
	 * @see ConfigureUpdates
	 */
	action getThrottlePeriod(dictionary<string,string> defaults, dictionary<string,string> config) returns float {
		string c:=getConfig(defaults, config, "throttlePeriod", "0.0");
		return float.parse(c);
	}
	
	/**
	 * Get the routeUpdate value from the given configuration
	 * @see ConfigureUpdates
	 */
	action getRouteUpdate(dictionary<string,string> defaults, dictionary<string,string> config) returns boolean {
		string c:=getConfig(defaults, config, "routeUpdate", "false");
		return c = "true";
	}
	

	/**
	 * Get the specified key from the configuration dictionaries, reverting to the default 
	 * if none specified.
	 */
	action getConfig(dictionary<string,string> defaults,
	                 dictionary<string,string> config, 
	                 string key, string _default) returns string {
		if config.hasKey(key) then {
			return config[key];
		}
		if defaults.hasKey(key) then {
			return defaults[key];
		}
		return _default;
	}

	action configurationManager(dictionary<string, string> defaultConfig, dictionary<string, dictionary<string, string> > configurations) {
		// the recognised ConfigureUpdates configuration keys, as above:
		dictionary<string,boolean> KNOWN_CONFIG_KEYS := {"sendThrottled":true, "throttlePeriod":false,
		 "sendRaw":true, "sendThrottledUser":true, "sendRawUser":true, "routeUpdate":true};

		dictionary <string,string> EMPTY_DICT:=new dictionary<string,string>;
		ConfigureUpdates cu;
		on all ConfigureUpdates():cu {
			string key;
			for key in cu.configuration.keys() {
				if not KNOWN_CONFIG_KEYS.hasKey(key) then {
					log "Unrecognized configuration property "+key+" in event "+cu.toString() at WARN;
				}
			}
			if cu.scenarioId = "" then {
				mergeConfiguration(cu.configuration, defaultConfig);
				log "Received "+cu.toString()+" : defaults applicable to all scenarios" at INFO;
			} else {
				if not configurations.hasKey(cu.scenarioId) then {
					configurations.add(cu.scenarioId, new dictionary<string,string>);
				}
				mergeConfiguration(cu.configuration, configurations[cu.scenarioId]);
				on ScenarioProcessedUpdates(cu.scenarioId) -> completed ConfigureUpdates(scenarioId=cu.scenarioId) {
					log "Received "+cu.toString()+" : applied to scenario" at INFO;
				}
				on completed ConfigureUpdates(scenarioId=cu.scenarioId) and not ScenarioProcessedUpdates(cu.scenarioId) {
					log "Received "+cu.toString()+" : for scenario that is not yet defined" at INFO;
				}
			}
		}

		GetConfiguration getConfig;
		on all GetConfiguration():getConfig {
			dictionary<string,string> config:=EMPTY_DICT;
			if configurations.hasKey(getConfig.scenarioId) then {
				config:=configurations[getConfig.scenarioId];
			}
			route Configuration(getConfig.scenarioId, defaultConfig, config);
		}	
		GetAllConfiguration gac;
		on all GetAllConfiguration():gac {
			route AllConfiguration(gac.requestId, defaultConfig, configurations);
		}
	}
		
}

event CallbackHelper {
	sequence<action<> > callbacks;
	action callback() {
		action<> c;
		for c in callbacks {
			c();
		}
	}
}



/**
 * Base event for tracking configuration for a given scenario
 */
event ScenarioServiceUpdaterBase {
	// these are internal and should not be set by users
	string scenarioId;
	dictionary<string,string> defaultConfig;
	dictionary<string,string> config;
	ScenarioServiceLibrary lib;
	boolean sendThrottled;
	boolean sendRaw;
	boolean sendAny;
	boolean emitAny;
	boolean sendThrottledUser;
	boolean sendRawUser;
	boolean routeUpdate;
	float throttlePeriod;
	float throttleStart;
	sequence<listener> listeners;
	string controlChannel;
	string rawChannel;
	string dataChannel;

	/**
	 * Called by monitor at onload time
	 * Will maintain configuration for this scenario
	 * @param sId the scenarioId
	 */
	action init(string sId, action<> cb_onUpdate) {
		scenarioId:=sId;
		controlChannel := lib.getControlChannel(scenarioId);
		rawChannel := lib.getRawChannel(scenarioId);
		dataChannel := lib.getDataChannel(scenarioId);
		route GetConfiguration(scenarioId);
		Configuration c;
		listener l:=on Configuration(scenarioId=scenarioId):c {
			config := c.configuration;
			defaultConfig := c.defaults;
			configurationUpdated();
			cb_onUpdate();
		}
		listeners.append(l);
	}

	/**
	 * Listen for further configuration changes.
	 * @param cb_onUpdate callback upon configuration having been updated
	 */	
	action listenToConfigureUpdates(action<> cb_onUpdate) {
		ConfigureUpdates cu;
		listener l:=on all ConfigureUpdates(scenarioId=""):cu or all ConfigureUpdates(scenarioId=scenarioId):cu {
			if(cu.scenarioId != "") then {
				route ScenarioProcessedUpdates(cu.scenarioId);
			}
			onConfigureUpdates(cu);
			cb_onUpdate();
		}
		listeners.append(l);
	}

	/**
	 * Called when new ConfigureUpdates event available
	 * @param sId the scenarioId
	 */
	action onConfigureUpdates(ConfigureUpdates cu) {
		if cu.scenarioId = "" then {
			lib.mergeConfiguration(cu.configuration, defaultConfig);
		} else {
			lib.mergeConfiguration(cu.configuration, config);
		}
		configurationUpdated();
	}
	
	/**
	 * Called when the configuration should be re-parsed.
	 * @param sId the scenarioId
	 */
	action configurationUpdated() {
		sendThrottled:=lib.getSendThrottled(defaultConfig, config);
		sendThrottledUser:=lib.getSendThrottledUser(defaultConfig, config);
		if sendThrottled or sendThrottledUser then {
			throttlePeriod:=lib.getThrottlePeriod(defaultConfig, config);
			if(throttlePeriod < 0.0) then {
				sendThrottled:=false;
				sendThrottledUser:=false;
			}
			throttleStart:=currentTime;
		}
		sendRaw:=lib.getSendRaw(defaultConfig, config);
		sendRawUser:=lib.getSendRawUser(defaultConfig, config);
		routeUpdate:=lib.getRouteUpdate(defaultConfig, config);
		sendAny:= sendRaw or sendThrottled or routeUpdate or sendRawUser or sendThrottledUser;
		emitAny:= sendRaw or sendThrottled or sendRawUser or sendThrottledUser;
	}

	/** 
	 * Get whether this scenario should send on the throttled (Data) channel
	 */
	action isSendThrottled() returns boolean {
		return sendThrottled or sendThrottledUser;
	}

	/** 
	 * Get whether this scenario should send on the raw channel
	 */
	action isSendRaw() returns boolean {
		return sendRaw or sendRawUser;
	}

	action doEmit(string emitted, string owner) {
		if sendRaw then {
			emit emitted to rawChannel;
		}
		if sendThrottled then {
			emit emitted to dataChannel;
		}
		if sendRawUser then {
			emit emitted to lib.getRawUserChannel(rawChannel, owner);
		}
		if sendThrottledUser then {
			emit emitted to lib.getDataUserChannel(dataChannel, owner);
		}
	}

	/**
 	 * Kill any listeners this object has started
	 */
	action destroy() {
		listener l;
		for l in listeners {
			l.quit();
		}
	}
}


/**
 * Utility event for tracking configuration for a given scenario.
 * This event is suitable for use by monitors which spawn per instance
 * (e.g. Scenarios)
 * 
 * This event also uses a callback to get the updates (supplied in
 * instanceInit). If the scenario is configured to only send throttled 
 * updates, the callback is only called when the throttling period 
 * determines an update should be sent - thus, the scenario does not
 * need to generate the output sequence<string> except when needed,
 * which can improve performance in such a configuration.
 * 
 * actions starting with an underscore should be considered private 
 * and not called by users of this event.
 */
event ScenarioServiceUpdaterSingleInstance {
	// these are internal and should not be set by users
	string scenarioId;
	integer scenarioInstanceId;
	ScenarioServiceLibrary lib;
	listener throttlingListener;
	ScenarioServiceUpdaterBase base;
	boolean havePending;
	float latestUpdate;
	action<> returns sequence<string> getUpdate;
	Update update;
	boolean needUpdate;
	context mainContext;
	string owner;
	string controlChannel;
	string rawChannel;
	string dataChannel;

	/**
	 * Called by monitor at onload time
	 * Will maintain configuration for this scenario
	 */
	action init(string sId) {
		init_cb(sId, _noopAction);
	}
	
	/**
	 * Called by monitor at onload time
	 * Will maintain configuration for this scenario.
	 * cb_init is called when initialisation is complete
	 */
	action init_cb(string sId, action<> cb_init) {
		base.init(sId, cb_init);
		scenarioId:=sId;
		controlChannel := lib.getControlChannel(scenarioId);
		rawChannel := lib.getRawChannel(scenarioId);
		dataChannel := lib.getDataChannel(scenarioId);
		base.listenToConfigureUpdates(_noopAction);
		mainContext:=context.current();
	}

	action _noopAction() {
	}
	

	/**
	 * Called by monitor after spawn
	 * Will maintain configuration for this scenario, and update listeners appropriately.
	 * @param getUpdateCallback a callback to get the latest outputFieldValues - may be called at any time, must 
         *        always return a consistent set of outputs
	 */
	action instanceInit(integer id, action<> returns sequence<string> getUpdateCallback, string _owner) {
		scenarioInstanceId:=id;
		owner:=_owner;
		getUpdate:=getUpdateCallback;
		update.scenarioId:=scenarioId;
		update.scenarioInstanceId:=scenarioInstanceId;
		base.listenToConfigureUpdates(_configurationUpdated);
		_configurationUpdated();
		listener l:=on all SendQueuedUpdatesNow() {
			_sendThrottledUpdate();
		}
		base.listeners.append(l);
	}

	/** 
	 * Get whether this scenario should route updates
	 */
	action isRouteUpdate() returns boolean {
		return base.routeUpdate;
	}

	/**
 	 * Kill any listeners this object has started
	 */
	action destroy() {
		base.destroy();
		throttlingListener.quit();
	}
	  
	/**
	 * called in instances (not factories) when configuration has changed
	 */
	action _configurationUpdated() {
		if base.isSendThrottled() then {
			throttlingListener.quit();
			flushPending();
			if(base.throttlePeriod >= 0.0) then {
				if havePending then {
					_setupThrottleListener();
				}
			}
		}
	}

	/**
	 * set up a throttled listener according to throttlePeriod control
	 */
	action _setupThrottleListener() {
		if base.throttlePeriod > 0.0 then {
			float offset:=currentTime-base.throttleStart;
			float t:=((offset/base.throttlePeriod).floor()+1).toFloat();
			throttlingListener:=on wait((t*base.throttlePeriod)-offset) {
				_sendThrottledUpdate();
			}
		} else {
			_sendThrottledUpdate();
		}
	}

	/**
	 * actually send an update on the throttled channel
	 */
	action _sendThrottledUpdate() {
		if not havePending then {
			return;
		}
		if needUpdate then {
			update.outputFieldValues:=getUpdate();
			update.timeStamp:=latestUpdate;
			needUpdate:=false;
		}
		if base.sendThrottled then {
			send update to dataChannel;
		}
		if base.sendThrottledUser then {
			send update to lib.getDataUserChannel(dataChannel, owner);
		}
		havePending:=false;
	}

	/**
	 * flush any pending update on the throttled channel.
	 */
	action flushPending() {
		if havePending then {
			_sendThrottledUpdate();
			throttlingListener.quit();
		}
	}	

	/**
 	 * Called when a new update is available.
	 */
	action newUpdateAvailable() {
		needUpdate:=true;
		latestUpdate:=currentTime;
 		if base.sendRaw or base.routeUpdate then {
			if needUpdate then {
				update.outputFieldValues:=getUpdate();
				update.timeStamp:=currentTime;
				needUpdate:=false;
			}
			if base.sendRaw then {
				send update to rawChannel;
			}
			if base.sendRawUser then {
				send update to lib.getRawUserChannel(rawChannel, owner);
			}
			if base.routeUpdate then {
				route update;
			}
		}
		if base.isSendThrottled() and not havePending then {
			havePending:=true;
			_setupThrottleListener();
		}
	}
	
	/**
 	 * Called to send a new Acknowledgement event.
	 */
	action emitAcknowledgement(integer messageId) {
		Acknowledge ack:=Acknowledge(scenarioId, messageId, scenarioInstanceId, true, getUpdate());
		if base.routeUpdate then {
			route ack;
		}
		if base.emitAny then {
			send ack to controlChannel;
		}
	}
				
	/**
 	 * Called to send a new Nak event.
	 */
	action emitNack(integer messageId) {
		Acknowledge nack:=Acknowledge(scenarioId, messageId, scenarioInstanceId, false, new sequence<string>);
		if base.routeUpdate then {
			route nack;
		}
		if base.emitAny then {
			send nack to controlChannel;
		}
	}
	
	/**
 	 * Called to send a new Created event.
	 */
	action emitCreated(integer messageId, string owner, string state, sequence<string> inputVariables, sequence<string> outputVariables) {
		if base.sendAny then {
			Created created:=Created(scenarioId, messageId, scenarioInstanceId, owner, state, inputVariables, outputVariables);
			route created;
			if base.emitAny then {
				base.doEmit(created.toString(), owner);
			}
		}
	}
	
	/**
 	 * Called to send a new Edited event.
	 */
	action emitEdited(integer messageId, sequence<string> inputVariables) {
		flushPending();
		if base.sendAny then {
			Edited edited:=Edited(scenarioId, messageId, scenarioInstanceId, inputVariables, getUpdate());
			if base.routeUpdate then {
				route edited;
			}
			if base.emitAny then {
				base.doEmit(edited.toString(), owner);
			}
		}
		emitOpCompleted(messageId);
	}

	/**
 	 * Called to say an operation has completed; implied by emitEdited. Must be called before emitInstanceDied.
	 */
	action emitOpCompleted(integer messageId) {
		if(context.current().getId()!=mainContext.getId()) then {
			send OperationCompleted(scenarioId, scenarioInstanceId, messageId) to mainContext;
		}
	}

	/**
 	 * Called to send a new Deleted event.
	 */
	action emitDeleted(integer messageId) {
		flushPending();
		if base.sendAny then {
			Deleted deleted:=Deleted(scenarioId, messageId, scenarioInstanceId);
			if base.routeUpdate then {
				route deleted;
			}
			if base.emitAny then {
				base.doEmit(deleted.toString(), owner);
			}
		}
		throttlingListener.quit();
		notifyInstanceDied();
	}

	/**
 	 * Called to send an instance Died event (either of failed, ended)
	 */
	action emitInstanceDied() {
		flushPending();
		if base.sendAny then {
			InstanceDied iDied:=InstanceDied(scenarioId, scenarioInstanceId);
			if base.emitAny then {
				base.doEmit(iDied.toString(), owner);
			}
			if mainContext.getId()=context.current().getId() then {
				route iDied;
			}
		}
		throttlingListener.quit();
	}

	/**
 	 * Called to notify the scenario service monitor that we have gone away - must be called 
 	 * after emitting any events regarding this instance going away. Implied by emitDeleted.
	 */
	action notifyInstanceDied() {
		if mainContext.getId()!=context.current().getId() then {
			InstanceDied iDied:=InstanceDied(scenarioId, scenarioInstanceId);
			
			// give a chance for anyone monitoring this from its own context 
			// to handle the InstanceDied before the main context
			if base.routeUpdate then {
				route InstanceDied(scenarioId, scenarioInstanceId);
			}

			send iDied to mainContext;
		}
	}
	
	/**
 	 * Called to send a new StateChange event.
	 */
	action emitStateChange(string state) {
		flushPending();
		StateChange stchange:=StateChange(scenarioId, scenarioInstanceId, state);
		if mainContext.getId()!=context.current().getId() then {
			send stchange to mainContext;
		} else {
			route stchange;
		}
		if base.emitAny then {
			base.doEmit(stchange.toString(), owner);
		}
	}

	/**
 	 * Called to send an instance in response to a RequestInstancesInternal event
	 */
	action emitInstance(RequestInstancesInternal request, string owner, string state, sequence<string> input, sequence<string> output) {
		Instance instance:=Instance(scenarioId, request.messageId, scenarioInstanceId, owner, state, input, output);
		if request.internal then {
			if mainContext.getId() != context.current().getId() then {
				send instance to mainContext;
			} else {
				route instance;
			}
		} else {
			if(base.emitAny) then {
				send instance to request.channel;
			}
		}
		if mainContext.getId() != context.current().getId() then {
			send RequestInstancesParallelDone(scenarioId, request.messageId, scenarioInstanceId) to mainContext;
		}
	}

	/**
 	 * Called when the instance has failed.  input and output are the input
 	 * and output variables as at the last Update/ Edited point.
	 */
	action finished(string state, string owner, sequence<string> input, sequence<string> output) {
		ScenarioFinished scenFinished:=ScenarioFinished(scenarioId, scenarioInstanceId, owner, state, input, output);
		if mainContext.getId() != context.current().getId() then {
			send scenFinished to mainContext;
		} else {
			route scenFinished;
		}
	}
	
}


/**
 * Utilitiy event for tracking configuration for a given scenario.
 * This event is suitable for use by monitors which spawn per scenario,
 * but not per instance. (e.g. ScenarioService, DataViewService)
 * 
 * actions starting with an underscore should be considered private 
 * and not called by users of this event.
 * 
 * Note that this updater only honours sendThrottledUser changes at the next throttling period
 * (it does not record the owner if sendThrottledUser is not true)
 */
event ScenarioServiceUpdaterMultipleInstances {
	// these are internal and should not be set by users
	string scenarioId;
	ScenarioServiceLibrary lib;
	listener throttlingListener;
	ScenarioServiceUpdaterBase base;
	boolean currentlySendingThrottledUser;
	dictionary<integer, Update> updates;
	dictionary<integer, string> owners;
	context mainContext;
	string controlChannel;
	string rawChannel;
	string dataChannel;

	/**
	 * Called by monitor for each scenario
	 * Will maintain configuration for this scenario Id
	 */
	action init(string sId, context mainCtx) {
		_init(sId, mainCtx, _configurationUpdated);
	}
	
	/**
	 * Called by monitor for each scenario
	 * Will maintain configuration for this scenario Id
	 */
	action init_cb(string sId, context mainCtx, action<> cb_initComplete) {
		CallbackHelper callbackHelper:=new CallbackHelper;
		callbackHelper.callbacks.append(cb_initComplete);
		callbackHelper.callbacks.append(_configurationUpdated);
		_init(sId, mainCtx, callbackHelper.callback);
	}

	/**
	 * Implementation of init and init_cb
	 */
	action _init(string sId, context mainCtx, action<> cb_initComplete) {
		base.init(sId, cb_initComplete);
		mainContext:=mainCtx;
		scenarioId:=sId;
		controlChannel := lib.getControlChannel(scenarioId);
		rawChannel := lib.getRawChannel(scenarioId);
		dataChannel := lib.getDataChannel(scenarioId);
		listener l:=on all SendQueuedUpdatesNow() {
			_sendThrottledUpdates();
		}
		base.listeners.append(l);
		base.listenToConfigureUpdates(_configurationUpdated);
	}
	
	/** 
	 * Get whether this scenario should route updates
	 */
	action isRouteUpdate() returns boolean {
		return base.routeUpdate;
	}

	/**
 	 * Kill any listeners this object has started
	 */
	action destroy() {
		base.destroy();
		throttlingListener.quit();
	}
	  

	/**
	 * called in instances (not factories) when configuration has changed
	 */
	action _configurationUpdated() {
		if base.isSendThrottled() then {
			throttlingListener.quit();
			flushPending();
			if(base.throttlePeriod >= 0.0) then {
				_setupThrottleListener();
			}
		}
	}

	/**
	 * set up a throttled listener according to throttlePeriod control
	 */
	action _setupThrottleListener() {
		if base.throttlePeriod > 0.0 then {
			throttlingListener:=on all wait(base.throttlePeriod) {
				_sendThrottledUpdates();
			}
		} else {
			_sendThrottledUpdates();
		}
	}

	/**
	 * actually send an update on the throttled channel
	 */
	action _sendThrottledUpdates() {
		integer instance;
		if base.sendThrottled then {
			for instance in updates.keys() {
				send updates[instance] to dataChannel;
			}
		}
		if currentlySendingThrottledUser then {
			for instance in updates.keys() {
				send updates[instance] to lib.getDataUserChannel(dataChannel, owners[instance]);
			}
		}
		owners.clear();
		updates.clear();
		currentlySendingThrottledUser := base.sendThrottledUser;
	}

	/**
	 * flush any pending update on the throttled channel.
	 */
	action flushPending() {
		_sendThrottledUpdates();
	}	

	/**
 	 * Flush pending throttled data for one instance
	 */
	action flushPendingInstance(integer scenarioInstanceId) {
		if updates.hasKey(scenarioInstanceId) then {
			if base.sendThrottled then {
				send updates[scenarioInstanceId] to dataChannel;
			}
			if currentlySendingThrottledUser then {
				send updates[scenarioInstanceId] to lib.getDataUserChannel(dataChannel, owners[scenarioInstanceId]);
			}
			updates.remove(scenarioInstanceId);
			if owners.hasKey(scenarioInstanceId) then {
				owners.remove(scenarioInstanceId);
			}
		}
	}	

	/**
 	 * Called when a new update is available. (This variant allows setting of the time parameter)
	 */
	action emitUpdate_time(integer scenarioInstanceId, float time, sequence<string> output, string owner) {
		if base.sendAny then {
			Update update:=Update(scenarioId, scenarioInstanceId, time, output);
			if base.sendRaw then {
				send update to rawChannel;
			}
			if base.sendRawUser then {
				send update to lib.getRawUserChannel(rawChannel, owner);
			}
			if base.routeUpdate then {
				route update;
			}
			if base.isSendThrottled() then {
				if base.throttlePeriod > 0.0 then {
					updates.add(scenarioInstanceId, update);
					if currentlySendingThrottledUser then {
						owners.add(scenarioInstanceId, owner);
					}
				} else {
					send update to dataChannel;
				}
			}
		}
	}
	
	/**
 	 * Called when a new update is available.
	 */
	action emitUpdate(integer scenarioInstanceId, sequence<string> output, string owner) {
		emitUpdate_time(scenarioInstanceId, currentTime, output, owner);
	}

	/**
 	 * Called to send a new Acknowledgement event.
	 */
	action emitAcknowledgement(integer messageId, integer scenarioInstanceId, sequence<string> output) {
		Acknowledge ack:=Acknowledge(scenarioId, messageId, scenarioInstanceId, true, output);
		if base.routeUpdate then {
			route ack;
		}
		if base.emitAny then {
			send ack to controlChannel;
		}
	}
				
	/**
 	 * Called to send a new Nak event.
	 */
	action emitNack(integer messageId, integer scenarioInstanceId) {
		Acknowledge nack:=Acknowledge(scenarioId, messageId, scenarioInstanceId, false, new sequence<string>);
		if base.routeUpdate then {
			route nack;
		}
		if base.emitAny then {
			send nack to controlChannel;
		}
	}
	
	/**
 	 * Called to send a new Created event.
	 */
	action emitCreated(integer messageId, integer scenarioInstanceId, string owner, string state, sequence<string> inputVariables, sequence<string> outputVariables) {
		if base.sendAny then {
			Created created:=Created(scenarioId, messageId, scenarioInstanceId, owner, state, inputVariables, outputVariables);
			route created;
			if base.emitAny then {
				string sCreated:=created.toString();
				base.doEmit(sCreated, owner);
			}
		}
	}

	/**
 	 * Called to send any received events (except for instance) for this scenario.
	 */
	action emitReceivedEvents() {
		dictionary<integer, string> instanceOwners:=new dictionary<integer, string>;
		{
			Update update;
			listener l:=on all Update(scenarioId = scenarioId):update {
				if base.sendRaw then {
					send update to rawChannel;
				}
				if base.sendRawUser and instanceOwners.hasKey(update.scenarioInstanceId) then {	
					send update to lib.getRawUserChannel(rawChannel, instanceOwners[update.scenarioInstanceId]);
				}
				if base.isSendThrottled() then {
					if base.throttlePeriod > 0.0 then {
						updates.add(update.scenarioInstanceId, update);
						string owner:="*";
						if instanceOwners.hasKey(update.scenarioInstanceId) then {
							owner:=instanceOwners[update.scenarioInstanceId];
						}
						if currentlySendingThrottledUser then {
							owners.add(update.scenarioInstanceId, owner);
						}
					} else {
						send update to dataChannel;
					}
				}
			}
			base.listeners.append(l);
		}
		{
			Created created;
			listener l:=on all Created(scenarioId = scenarioId):created {
				if(created.owner != "*") then {
					instanceOwners.add(created.scenarioInstanceId, created.owner);
				}
				base.doEmit(created.toString(), created.owner);				
			}
			base.listeners.append(l);
		}
		{
			Deleted deleted;
			listener l:=on all Deleted(scenarioId = scenarioId):deleted {
				flushPendingInstance(deleted.scenarioInstanceId);
				string owner:="*";
				if instanceOwners.hasKey(deleted.scenarioInstanceId) then {
					owner:=instanceOwners[deleted.scenarioInstanceId];
					instanceOwners.remove(deleted.scenarioInstanceId);
				}
				base.doEmit(deleted.toString(), owner);		
			}
			base.listeners.append(l);
		}
		{
			Edited edited;
			listener l:=on all Edited(scenarioId = scenarioId):edited {
				flushPendingInstance(edited.scenarioInstanceId);
				string owner:="*";
				if instanceOwners.hasKey(edited.scenarioInstanceId) then {
					owner:=instanceOwners[edited.scenarioInstanceId];
				}
				base.doEmit(edited.toString(), owner);		
			}
			base.listeners.append(l);
		}
		{
			InstanceDied instanceDied;
			listener l:=on all InstanceDied(scenarioId = scenarioId):instanceDied {
				flushPendingInstance(instanceDied.scenarioInstanceId);
				string owner:="*";
				if instanceOwners.hasKey(instanceDied.scenarioInstanceId) then {
					owner:=instanceOwners[instanceDied.scenarioInstanceId];
				}
				base.doEmit(instanceDied.toString(), owner);		
			}
			base.listeners.append(l);
		}
	}
	
	/**
 	 * Called to send a new Edited event.
	 */
	action emitEdited(integer messageId, integer scenarioInstanceId, sequence<string> inputVariables, sequence<string> outputVariables, string owner) {
		flushPendingInstance(scenarioInstanceId);
		if base.sendAny then {
			Edited edited:=Edited(scenarioId, messageId, scenarioInstanceId, inputVariables, outputVariables);
			if base.routeUpdate then {
				route edited;
			}
			if base.emitAny then {
				base.doEmit(edited.toString(), owner);
			}
		}
		emitOpCompleted(messageId, scenarioInstanceId);
	}

	/**
 	 * Called to say an operation has completed; implied by emitEdited. Must be called before emitInstanceDied.
	 */
	action emitOpCompleted(integer messageId, integer scenarioInstanceId) {
		if(context.current().getId()!=mainContext.getId()) then {
			send OperationCompleted(scenarioId, scenarioInstanceId, messageId) to mainContext;
		}
	}

	/**
 	 * Called to send a new Deleted event.
	 */
	action emitDeleted(integer messageId, integer scenarioInstanceId, string owner) {
		flushPendingInstance(scenarioInstanceId);
		if base.sendAny then {
			Deleted deleted:=Deleted(scenarioId, messageId, scenarioInstanceId);
			if base.routeUpdate then {
				route deleted;
			}
			if base.emitAny then {
				base.doEmit(deleted.toString(), owner);
			}
		}
		notifyInstanceDied(scenarioInstanceId);
	}

	/**
 	 * Called to notify the scenario service monitor that we have gone away - must be called 
 	 * after emitting any events regarding this instance going away. Implied by emitDeleted.
	 */
	action notifyInstanceDied(integer scenarioInstanceId) {
		if mainContext.getId()!=context.current().getId() then {
			InstanceDied iDied:=InstanceDied(scenarioId, scenarioInstanceId);
			send iDied to mainContext;
		}
	}
	

	
	/**
 	 * Called to send an instance Died event (either of failed, ended)
	 */
	action emitInstanceDied(integer scenarioInstanceId, string owner) {
		flushPendingInstance(scenarioInstanceId);
		if base.sendAny then {
			InstanceDied iDied:=InstanceDied(scenarioId, scenarioInstanceId);
			if base.emitAny then {
				base.doEmit(iDied.toString(), owner);
			}
			if mainContext.getId()=context.current().getId() then {
				route iDied;
			}
		}
	}
	
	/**
 	 * Called to send a new StateChange event.
	 */
	action emitStateChange(string state, integer scenarioInstanceId, string owner) {
		flushPendingInstance(scenarioInstanceId);
		StateChange stchange:=StateChange(scenarioId, scenarioInstanceId, state);
		if mainContext.getId()!=context.current().getId() then {
			send stchange to mainContext;
		} else {
			route stchange;
		}
		if base.emitAny then {
			base.doEmit(stchange.toString(), owner);
		}
	}

	/**
 	 * Called to send an instance in response to a RequestInstancesInternal event
	 */
	action emitInstance(RequestInstancesInternal request, integer scenarioInstanceId, string owner, string state, sequence<string> input, sequence<string> output) {
		Instance instance:=Instance(scenarioId, request.messageId, scenarioInstanceId, owner, state, input, output);
		if request.internal then {
			if mainContext.getId() != context.current().getId() then {
				send instance to mainContext;
			} else {
				route instance;
			}
		} else {
			if(base.emitAny) then {
				send instance to request.channel;
			}
		}
		if mainContext.getId() != context.current().getId() then {
				send RequestInstancesParallelDone(scenarioId, request.messageId, scenarioInstanceId) to mainContext;
		}
	}
	/**
 	 * Called to send an instance that has already been seen in the current context
	 */
	action emitReceivedInstance(RequestInstancesInternal request, Instance instance) {
		if request.internal then {
			if mainContext.getId() != context.current().getId() then {
				send instance to mainContext;
			}
		} else {
			if(base.emitAny) then {
				send instance to request.channel;
			}
		}
	}
	
}


/*
 * Monitor that performs the following tasks:
 *   - routing/emitting ScenarioServiceLoaded when the service is loaded
 *   - routing/emitting ScenarioServiceUnloaded when the service is unloaded
 *   - routing/emitting a nack if a Create request is ignored
 *   - maintains latest configuration
 *   - tracks state of ended/ failed scenarios
 *   - forwards Edit, delete events to scenarios in other contexts
 *
 */
monitor ScenarioService {

	event PendingOperation {
		integer messageId;
		integer type; // 0 = delete, 1 = edit
	}

	listener throttledSenderListener;
	ScenarioServiceLibrary lib;
	RequestScenarios requestScenarios;
	boolean requestingScenarios;
	
	// MetaData relating to the interface
	dictionary<string,string> interfaceMetaData := {
		"interface.package"     :"com.apama.scenario",
		"interface.name"        :"ScenarioService",
		"interface.fileName"    :"ScenarioService.mon",
		"interface.vendor"      :"Apama",
		"interface.version"     :"9.10.0.3.284318",
		"interface.fullVersion" :"rel/9.10.0.x@284318",
		"interface.language"    :"MonitorScript"
	};
	
	// Channel names	
	string scenarioServiceChannel := "com.apama.scenario";
	integer highestInstanceId;


	// the first mThread handles scenario discovery and maps some events to internal events
	action onload() {
		// print version
		log "ScenarioService interface loaded. MetaData: "+interfaceMetaData.toString() at INFO;
		
		// generate the ScenarioServiceLoaded event
		route ScenarioServiceLoaded();
		send ScenarioServiceLoaded() to scenarioServiceChannel;

		dictionary <string,string> defaultConfig:=new dictionary<string,string>;
		dictionary <string, dictionary<string,string> > configurations:=new dictionary<string, dictionary<string,string> >;
		lib.configurationManager(defaultConfig, configurations);
		RequestInstancesOnChannel requestInstancesOnChannel;
		on all RequestInstancesOnChannel():requestInstancesOnChannel {
			route RequestInstancesInternal(requestInstancesOnChannel.scenarioId, requestInstancesOnChannel.messageId, requestInstancesOnChannel.channel, false, "", false);
			on RequestInstancesDone(scenarioId=requestInstancesOnChannel.scenarioId, messageId=requestInstancesOnChannel.messageId) {
				send RequestInstancesDone(requestInstancesOnChannel.scenarioId, requestInstancesOnChannel.messageId) to requestInstancesOnChannel.channel;
			}
		}

		RequestInstancesOnChannelByUser requestInstancesOnChannelByUser;
		on all RequestInstancesOnChannelByUser():requestInstancesOnChannelByUser {
			route RequestInstancesInternal(requestInstancesOnChannelByUser.scenarioId, requestInstancesOnChannelByUser.messageId, requestInstancesOnChannelByUser.channel, false, requestInstancesOnChannelByUser.owner, true);
			on RequestInstancesDone(scenarioId=requestInstancesOnChannelByUser.scenarioId, messageId=requestInstancesOnChannelByUser.messageId) {
				send RequestInstancesDone(requestInstancesOnChannelByUser.scenarioId, requestInstancesOnChannelByUser.messageId) to requestInstancesOnChannelByUser.channel;
			}
		}
		Scenario scenario;
		on all Scenario():scenario {
			if requestingScenarios then {
				send scenario to requestScenarios.channel;
			} else {
				spawn trackScenario(scenario);
			}
		}
		
		ScenarioUnloaded scenarioUnloaded;
		on all ScenarioUnloaded(): scenarioUnloaded {
			send scenarioUnloaded to scenarioServiceChannel;
		}

		
		on all RequestScenarios():requestScenarios {
			send RequestScenariosAck() to requestScenarios.channel;
			route StartScenarioRecovery();
			route FinishedScenarioRecovery();
			requestingScenarios:=true;
			on FinishedScenarioRecovery() {
				requestingScenarios:=false;
				send RequestScenariosDone() to requestScenarios.channel;
			}
		}

		dictionary <string,string> EMPTY_DICT:=new dictionary<string,string>;
		// Pick up any requests for operations on invalid scenarioIds
		Create create;
		on all unmatched Create(): create {
			dictionary<string,string> config:=EMPTY_DICT;
			if configurations.hasKey(create.scenarioId) then {
				config:=configurations[create.scenarioId];
			}
			Acknowledge nack := new Acknowledge;
			nack.scenarioId := create.scenarioId;
			nack.messageId := create.messageId;
			nack.success := false;
			log create.scenarioId+": Scenario create ignored - unknown scenarioId." at WARN;
			send nack to lib.getControlChannel(create.scenarioId);
			if lib.getRouteUpdate(defaultConfig, config) then {
				route nack;
			}
		}

		// The old SetThrottlingPeriod is mapped to a ConfigureUpdates event
		SetThrottlingPeriod setThrottlingPeriod;		
		on all SetThrottlingPeriod():setThrottlingPeriod {
			dictionary<string, string> configChanges:=new dictionary<string,string>;
			if setThrottlingPeriod.period >= 0.0 then {
				configChanges["sendThrottled"]:="true";
				configChanges["throttlePeriod"]:=setThrottlingPeriod.period.toString();
			} else {
				configChanges["sendThrottled"]:="false";
			}
			ConfigureUpdates cu:=ConfigureUpdates("", configChanges);
			log "Received deprecated event "+setThrottlingPeriod.toString()+", will re-route as "+cu.toString() at WARN;
			route cu;
		}
	}		
				
	
	action onunload() {
		// generate the ScenarioServiceUnloaded event
		ScenarioServiceUnloaded unloaded := new ScenarioServiceUnloaded;
		route unloaded;
		send unloaded to scenarioServiceChannel;
	}
	
	/**
	 * spawned per scenario, and handles any finished scenario instances.
	 * For parallel scenarios, it also tracks which instance runs in 
	 * which context and forwards Edit and Delete events.
	 */
	action trackScenario(Scenario scenario) {
		on ScenarioUnloaded(scenarioId=scenario.scenarioId) {
			die;
		}
		ScenarioServiceUpdaterMultipleInstances updater:=new ScenarioServiceUpdaterMultipleInstances;
		updater.init(scenario.scenarioId, context.current());
		ScenarioFinished finished;
		on all ScenarioFinished(scenarioId=scenario.scenarioId):finished {
			// Finished scenarios can be deleted (which terminates all listeners for this instance), 
			// discovered, and edits are Nacked 
			Delete delete;
			on Delete(scenarioId=scenario.scenarioId, scenarioInstanceId = finished.scenarioInstanceId):delete {
				updater.emitAcknowledgement(delete.messageId, finished.scenarioInstanceId, finished.outputFieldValues);
				updater.emitDeleted(delete.messageId, finished.scenarioInstanceId, finished.owner);
			}
			Edit edit;
			on all Edit(scenarioId=scenario.scenarioId, scenarioInstanceId=finished.scenarioInstanceId):edit and not 
			            Delete(scenarioId=scenario.scenarioId, scenarioInstanceId = finished.scenarioInstanceId) {
				updater.emitNack(edit.messageId, finished.scenarioInstanceId);
				log scenario.displayName+"("+finished.scenarioInstanceId.toString()+ "): Scenario edit ignored - Scenario is in "+finished.state+" state." at WARN;
			}
			RequestInstancesInternal requestInstances;
			if finished.owner = "*" then {
				on all RequestInstancesInternal(scenarioId=scenario.scenarioId):requestInstances and not
						Delete(scenarioId=scenario.scenarioId, scenarioInstanceId = finished.scenarioInstanceId) {
					updater.emitInstance(requestInstances, finished.scenarioInstanceId,
						finished.owner, finished.state, finished.inputFieldValues, finished.outputFieldValues);
				}
			} else {
				on all (RequestInstancesInternal(scenarioId=scenario.scenarioId, ownerFilter=false):requestInstances or
					RequestInstancesInternal(scenarioId=scenario.scenarioId, owner=finished.owner, ownerFilter=true):requestInstances) and not
						Delete(scenarioId=scenario.scenarioId, scenarioInstanceId = finished.scenarioInstanceId) {
					updater.emitInstance(requestInstances, finished.scenarioInstanceId,
						finished.owner, finished.state, finished.inputFieldValues, finished.outputFieldValues);
				}
			}
		}
		if scenario.executionMode > 0 then {
			// for parallel scenarios, we keep track of instance to context mapping:
			dictionary<integer, context> runningCtxs := new dictionary<integer, context>;
			// and to owner mapping:
			dictionary<integer, string> ownerCtxs := new dictionary<integer, string>;
			// and by user:
			dictionary<string, dictionary<integer, context> > runningCtxsByOwner := new dictionary<string, dictionary<integer, context> >;
			// maps from instanceId to sequence<messageId>
			dictionary<integer, sequence<PendingOperation> > pendingOperations := new dictionary<integer, sequence<PendingOperation> >;
			ParallelStarting starting;
			on all ParallelStarting(scenarioId = scenario.scenarioId):starting {
				runningCtxs.add(starting.scenarioInstanceId, starting.runningCtx);
				ownerCtxs.add(starting.scenarioInstanceId, starting.owner);
				if not runningCtxsByOwner.hasKey(starting.owner) then {
					runningCtxsByOwner.add(starting.owner, new dictionary<integer, context>);
				}
				runningCtxsByOwner[starting.owner].add(starting.scenarioInstanceId, starting.runningCtx);
				highestInstanceId := starting.scenarioInstanceId;
			}
			
			InstanceDied died;
			on all InstanceDied(scenarioId = scenario.scenarioId):died {
				if runningCtxs.hasKey(died.scenarioInstanceId) then {
					runningCtxs.remove(died.scenarioInstanceId);
				}
				if ownerCtxs.hasKey(died.scenarioInstanceId) then {
					string owner:=ownerCtxs[died.scenarioInstanceId];
					ownerCtxs.remove(died.scenarioInstanceId);
					if runningCtxsByOwner.hasKey(owner) then {
						if runningCtxsByOwner[owner].hasKey(died.scenarioInstanceId) then {
							runningCtxsByOwner[owner].remove(died.scenarioInstanceId);
						}
						if runningCtxsByOwner[owner].size()=0 then {
							runningCtxsByOwner.remove(owner);
						}
					}
				}
				if pendingOperations.hasKey(died.scenarioInstanceId) then {
					PendingOperation pending;
					for pending in pendingOperations[died.scenarioInstanceId] {
						if pending.type = 0 then {
							route Delete(scenario.scenarioId, pending.messageId, died.scenarioInstanceId);
						} else {
							if pending.type = 1 then {
								route Edit(scenario.scenarioId, pending.messageId, died.scenarioInstanceId, new sequence<string>);
							} else {
								log "error: unknown pending operation type "+pending.toString() at ERROR;
							}
						}
					}
					pendingOperations.remove(died.scenarioInstanceId);
				}
			}
			
			// and forward edits, deletes:
			Edit edit;
			on all unmatched Edit(scenarioId = scenario.scenarioId):edit {
				if runningCtxs.hasKey(edit.scenarioInstanceId) then {
					send edit to runningCtxs[edit.scenarioInstanceId];
					addPendingOperation(pendingOperations, edit.scenarioInstanceId, edit.messageId, 1);
					on OperationCompleted(scenarioId = scenario.scenarioId, scenarioInstanceId = edit.scenarioInstanceId, messageId = edit.messageId) and not
					   ScenarioFinished(scenarioId = scenario.scenarioId, scenarioInstanceId = edit.scenarioInstanceId){
						removePendingOperation(pendingOperations, edit.scenarioInstanceId, edit.messageId);
					}
				} else {
					log scenario.displayName+"("+edit.scenarioInstanceId.toString()+"): Scenario edit ignored - unknown scenarioInstanceId." at WARN;
					updater.emitNack(edit.messageId, edit.scenarioInstanceId);
				}
			}
			Delete delete;
			on all unmatched Delete(scenarioId = scenario.scenarioId):delete {
				if runningCtxs.hasKey(delete.scenarioInstanceId) then {
					send delete to runningCtxs[delete.scenarioInstanceId];
					addPendingOperation(pendingOperations, delete.scenarioInstanceId, delete.messageId, 0);
					on OperationCompleted(scenarioId = scenario.scenarioId, scenarioInstanceId = delete.scenarioInstanceId, messageId = delete.messageId) and not
					   ScenarioFinished(scenarioId = scenario.scenarioId, scenarioInstanceId = delete.scenarioInstanceId){
						removePendingOperation(pendingOperations, delete.scenarioInstanceId, delete.messageId);
					}
				} else {
					log scenario.displayName+"("+delete.scenarioInstanceId.toString()+"): Scenario delete ignored - unknown scenarioInstanceId." at WARN;
					updater.emitNack(delete.messageId, delete.scenarioInstanceId);
				}
			}
			
			// and request instances is handled by a separate monitor. Note that 
			// Finished scenarios are not in the dictionary, but are handled by the finished
			// listener above.
			RequestInstancesInternal reqInstances;
			on all RequestInstancesInternal(scenarioId=scenario.scenarioId):reqInstances {
				if reqInstances.ownerFilter then {
					if runningCtxsByOwner.hasKey(reqInstances.owner) then {
						dictionary<integer, context> rCtxs:=runningCtxsByOwner[reqInstances.owner];
						if runningCtxsByOwner.hasKey("*") then {
							rCtxs:=rCtxs.clone();
							integer i;
							dictionary<integer, context> wildcards:=runningCtxsByOwner["*"];
							for i in wildcards.keys() {
								rCtxs.add(i, wildcards[i]);
							}
						}
						route RequestInstancesParallel(reqInstances, rCtxs, highestInstanceId);
					} else {
						if runningCtxsByOwner.hasKey("*") then {
							route RequestInstancesParallel(reqInstances, runningCtxsByOwner["*"], highestInstanceId);
						} else {
							route RequestInstancesParallel(reqInstances, new dictionary<integer,context>, highestInstanceId);
						}
					}
				} else {
					route RequestInstancesParallel(reqInstances, runningCtxs, highestInstanceId);
				}
			}
			ConfigureUpdates cu;
			on all ConfigureUpdates(scenarioId=""):cu or all ConfigureUpdates(scenarioId=scenario.scenarioId):cu {
				integer inst;
				for inst in runningCtxs.keys() {
					send cu to runningCtxs[inst];
				}
			}
			on all SendQueuedUpdatesNow() {
				SendQueuedUpdatesNow snow:=SendQueuedUpdatesNow();
				integer inst;
				for inst in runningCtxs.keys() {
					send snow to runningCtxs[inst];
				}
			}
		}
	}
	
	action addPendingOperation(dictionary<integer,  sequence<PendingOperation> > pendingOperations, integer scenarioInstanceId, integer messageId, integer type) {
		if not pendingOperations.hasKey(scenarioInstanceId) then {
			pendingOperations.add(scenarioInstanceId, new sequence<PendingOperation>);
		}
		pendingOperations[scenarioInstanceId].append(PendingOperation(messageId, type));
	}
	
	action removePendingOperation(dictionary<integer, sequence<PendingOperation> > pendingOperations, integer scenarioInstanceId, integer messageId) {
		if not pendingOperations.hasKey(scenarioInstanceId) then {
			return;
		}
		integer idx:=-1, i:=0;
		while(i < pendingOperations[scenarioInstanceId].size()) {
			if pendingOperations[scenarioInstanceId][i].messageId = messageId then {
				idx:=i;
				break;
			}
			i:=i+1;
		}
		if(idx>=0) then {
			pendingOperations[scenarioInstanceId].remove(idx);
		}
		if pendingOperations[scenarioInstanceId].size() = 0 then {
			pendingOperations.remove(scenarioInstanceId);
		}
	}	
}

/*
 * Monitor that handles request instances for parallel scenarios:
 * - on a RequestInstancesOnChannel for a parallel scenario, the ScenarioService 
 *   routes a RequestInstancesParallel which triggers this monitor to spawn.
 * - this waits for a response (be it to say the request instances has been 
 *   handled or that the scenario has finished) before sending the 
 *   RequestInstancesDone event 
 *
 * Note that this monitor assumes scenarioInstancesIds always increase over time.
 */
monitor RequestInstancesHandler {
	RequestInstancesParallel req;
	action onload() {
		on all RequestInstancesParallel():req {
			spawn handleRequest();
		}
	}
	
	/**
	 * Forward the request to every context and await responses. We remove 
	 * instances from the dictionary upon receiving an update for them. 
	 */
	action handleRequest() {
		ScenarioServiceUpdaterMultipleInstances updater:=new ScenarioServiceUpdaterMultipleInstances;
		updater.init(req.request.scenarioId, context.current());
		integer k;
		for k in req.instances.keys() {
			send req.request to req.instances[k];
		}
		// if a scenario dies, it will send events in the order ScenarioFinished, InstanceDied:
		ScenarioFinished finished;
		on all ScenarioFinished(scenarioId=req.request.scenarioId, scenarioInstanceId <= req.highestInstanceId):finished {
			// if a scenario dies after it has sent the Instance, do not send another 
			// (the StateChange/ InstanceDied events are sufficient)
			if(req.instances.hasKey(finished.scenarioInstanceId)) then {
				updater.emitInstance(req.request, finished.scenarioInstanceId,
					finished.owner, finished.state, finished.inputFieldValues, finished.outputFieldValues);
			}
		}
		// A finished scenario should not be counted
		InstanceDied died;
		on all InstanceDied(scenarioId = req.request.scenarioId, scenarioInstanceId <= req.highestInstanceId):died {
			if(req.instances.hasKey(died.scenarioInstanceId)) then {
				req.instances.remove(died.scenarioInstanceId);
				checkFinished();
			}
		}
		RequestInstancesParallelDone pdone;
		on all RequestInstancesParallelDone(scenarioId = req.request.scenarioId, messageId = req.request.messageId):pdone {
			if(req.instances.hasKey(pdone.scenarioInstanceId)) then {
				req.instances.remove(pdone.scenarioInstanceId);
				checkFinished();
			}
		}
		checkFinished();
	}
	
	/**
	 * Check whether we are finished.
	 * We are finished if we have no instances left in our dictionary, in which 
	 * case we route a RequestInstancesDone (handled by the ScenarioService monitor)
	 * and terminate.
	 */
	action checkFinished() {
		if req.instances.size()=0 then {
			route RequestInstancesDone(req.request.scenarioId, req.request.messageId);
			die;
		}
	}
}

 00000030 C:\SoftwareAG\Apama\monitors\ScenarioService.mon
MONF 00004f92 package com.apama.dataview;

/*
 * $Copyright(c) 2007, 2008 Progress Software Corporation (PSC). All rights reserved.$
 * $Copyright (c) 2013-2015 Software AG, Darmstadt, Germany and/or Software AG USA Inc., Reston, VA, USA, and/or its subsidiaries and/or its affiliates and/or their licensors.$
 * Use, reproduction, transfer, publication or disclosure is prohibited except as specifically provided for in your License Agreement with Software AG
 */


/* Apama DataViewService API.
 *
 * This service enables MonitorScript or JMon applications to expose a simple 
 * read-only "DataView" interface. DataViews may be viewed using Apama Dashboard 
 * Studio in a similar way to Scenarios.
 *
 * Several implementations of this interface will exist. 
 * Each implementation is in a separate file - inject the one you wish to use.
 *   e.g. DataViewService_Impl_Dict.mon
 *
 * Route vs. Emit
 * The standard implementations of the DataViewService will always ROUTE 
 * any com.apama.dataview.* events, with the expectation that applications
 * using the service are co-located in the same correlator as the service.
 * If your architecture requires the client application to be in a separate 
 * correlator to the DataView service, then two "emitter" monitors are 
 * available.
 * DataViewService_ServiceEmitter.mon  would be injected into the same 
 * correlator as the DataView service after injecting the DataViewService 
 * interface but before injecting the implementation.
 * DataViewService_ApplicationEmitter.mon  would be injected into the same 
 * correlator as the client application after injecting the DataViewService 
 * interface but before injecting the client application.
 * 
 *
 * Notes:
 * 
 * 1) Every event has an initial field called msgId. Clients may choose to put 
 *    some identifier in this field when sending messages to the service. Any 
 *    event routed by the service in response will contain the same identifier.
 *
 * 2) Most events contain a field called "dvName". This string 
 *    uniquely identifies a DataView inside the correlator. 
 *
[...]
//(at your option) any later version.

//Cycle Monitor is distributed in the hope that it will be useful,
//but WITHOUT ANY WARRANTY; without even the implied warranty of
//MERCHANTABILITY or FITNESS FOR A PARTICULAR PURPOSE.  See the
//GNU General Public License for more details.

//You should have received a copy of the GNU General Public License
//along with City Monitor.  If not, see <http://www.gnu.org/licenses/>.

//Contact: moray.grieve@me.com

package com.jtech.alert;
using com.jtech.source.StationUpdate;

event IAlertStrategy {
	action <> returns string  getCity;
	action <> returns integer getId;
	action <> returns string  getType;
	action <> returns string  getColor;
	action <StationUpdate> check;
	action <string> pprint;
}
 0000004d C:\Users\moray\Development\cycle-monitor\monitors\strategy\IAlertStrategy.mon
MONF 000003d8 //Cycle Monitor, Copyright (C) 2016  M.B.Grieve
//This file is part of the Cycle Monitor example application.

//Cycle Monitor is free software: you can redistribute it and/or modify
//it under the terms of the GNU General Public License as published by
//the Free Software Foundation, either version 3 of the License, or
//(at your option) any later version.

//Cycle Monitor is distributed in the hope that it will be useful,
//but WITHOUT ANY WARRANTY; without even the implied warranty of
//MERCHANTABILITY or FITNESS FOR A PARTICULAR PURPOSE.  See the
//GNU General Public License for more details.

//You should have received a copy of the GNU General Public License
//along with City Monitor.  If not, see <http://www.gnu.org/licenses/>.

//Contact: moray.grieve@me.com

package com.jtech.alert;
using com.jtech.source.StationUpdate;

event IAlertManager {
	action <IAlertStrategy, StationUpdate, string> addAlert;
	action <IAlertStrategy> clearAlert;
} 0000004c C:\Users\moray\Development\cycle-monitor\monitors\strategy\IAlertManager.mon
MONF 00000a3f //Cycle Monitor, Copyright (C) 2016  M.B.Grieve
//This file is part of the Cycle Monitor example application.

//Cycle Monitor is free software: you can redistribute it and/or modify
//it under the terms of the GNU General Public License as published by
//the Free Software Foundation, either version 3 of the License, or
//(at your option) any later version.

//Cycle Monitor is distributed in the hope that it will be useful,
//but WITHOUT ANY WARRANTY; without even the implied warranty of
//MERCHANTABILITY or FITNESS FOR A PARTICULAR PURPOSE.  See the
//GNU General Public License for more details.

//You should have received a copy of the GNU General Public License
//along with City Monitor.  If not, see <http://www.gnu.org/licenses/>.

//Contact: moray.grieve@me.com

package com.jtech.alert;

event RemoveAlerts {}

event RemoveAlert {
	string city;
	integer id;
	string type;
}

event Alert {
	string city;
	integer id;
	string name;
	float lat;
	float lng;
	float ratio;
	integer docked;
	integer empty;
	float timestamp;
	string type;
	string message;
	string color;

	action init(string city, integer id, string type) returns Alert {
		Alert alert := new Alert;
		alert.city := city;
		alert.id := id;
		alert.type := type;
		return alert;
	}

	action iface() returns com.jtech.util.IKeyedDataView {
		com.jtech.util.IKeyedDataView this := new com.jtech.util.IKeyedDataView;
		this.getDVName := getDVName;
		this.getDVDisplayName := getDVDisplayName;
		this.getDVDescription := getDVDescription;
		this.getDVFieldNames := getDVFieldNames;
		this.getDVFieldTypes := getDVFieldTypes;
		this.getDVFieldValues := getDVFieldValues;
		this.getDVKeyFields := getDVKeyFields;
		this.getDVKeyFieldValues := getDVKeyFieldValues;
		return this;
	}

	action getDVName() returns string { return "StationAlert"; }
	action getDVDisplayName() returns string { return "StationAlert"; }
	action getDVDescription() returns string { return "An alert accociated with the cycle station"; }
	action getDVFieldNames() returns sequence<string> { return self.getFieldNames(); }
	action getDVFieldTypes() returns sequence<string> { return self.getFieldTypes(); }
	action getDVFieldValues() returns sequence<string> { return self.getFieldValues(); }
	action getDVKeyFields() returns sequence<string> {
		sequence<string> ret := new sequence<string>;
		ret := ["city","id","type"];
		return ret;
	}
	action getDVKeyFieldValues() returns sequence<string> {
		sequence<string> ret := new sequence<string>;
		ret := [city,id.toString(),type];
		return ret;
	}
} 0000004e C:\Users\moray\Development\cycle-monitor\monitors\strategy\AlertDefinition.mon
MONF 00000984 //Cycle Monitor, Copyright (C) 2016  M.B.Grieve
//This file is part of the Cycle Monitor example application.

//Cycle Monitor is free software: you can redistribute it and/or modify
//it under the terms of the GNU General Public License as published by
//the Free Software Foundation, either version 3 of the License, or
//(at your option) any later version.

//Cycle Monitor is distributed in the hope that it will be useful,
//but WITHOUT ANY WARRANTY; without even the implied warranty of
//MERCHANTABILITY or FITNESS FOR A PARTICULAR PURPOSE.  See the
//GNU General Public License for more details.

//You should have received a copy of the GNU General Public License
//along with City Monitor.  If not, see <http://www.gnu.org/licenses/>.

//Contact: moray.grieve@me.com

package com.jtech.alert;
using com.jtech.source.StationUpdate;

event AlertStrategy { 
	IAlertStrategy this;
	integer id;
	string  city;
	string  type;
	string  color;
	string  prefix;
	boolean alerted;
	IAlertManager manager;

	action init(integer id, string city, string type, string color, IAlertManager manager) returns IAlertStrategy {
		self.id := id;
		self.city := city;
		self.type := type;
		self.color := color;
		self.manager := manager;
		__setupRemoveListener();

		prefix := "["+city+"."+id.toString()+"."+type+"] ";
		log prefix+"Created strategy instance";

		this := new IAlertStrategy;
		this.getCity := getCity;
		this.getId := getId;
		this.getType := getType;
		this.getColor := getColor;
		this.check := check;
		this.pprint := pprint;
		return this;
	}

	//base implementations
	action pprint(string message) {log prefix+message;}
	action getCity() returns string { return city; }
	action getId() returns integer { return id; }
	action getType() returns string { return type; }
	action getColor() returns string { return color; }

	//abstract (implement in extending event)
	action check(StationUpdate update) {}

	//methods on the base (visible to extending event)
	action alert(StationUpdate update, string message) {
		alerted := true;
		manager.addAlert(this, update, message);
	}

	action clear() {
		alerted := false;
		manager.clearAlert(this);
	}

	//called within the base only
	action __setupRemoveListener() {
		on all (RemoveAlerts() or RemoveAlert(city,id,type) ){
			if (alerted) then { 
				alerted := false;
				clear(); 
			}
		}	
	}
} 0000004c C:\Users\moray\Development\cycle-monitor\monitors\strategy\AlertStrategy.mon
MONF 0000068a //Cycle Monitor, Copyright (C) 2016  M.B.Grieve
//This file is part of the Cycle Monitor example application.

//Cycle Monitor is free software: you can redistribute it and/or modify
//it under the terms of the GNU General Public License as published by
//the Free Software Foundation, either version 3 of the License, or
//(at your option) any later version.

//Cycle Monitor is distributed in the hope that it will be useful,
//but WITHOUT ANY WARRANTY; without even the implied warranty of
//MERCHANTABILITY or FITNESS FOR A PARTICULAR PURPOSE.  See the
//GNU General Public License for more details.

//You should have received a copy of the GNU General Public License
//along with City Monitor.  If not, see <http://www.gnu.org/licenses/>.

//Contact: moray.grieve@me.com

package com.jtech.alert;
using com.jtech.source.StationUpdate;

event UpperBoundary {
	constant string  TYPE :="UPPER_BOUNDARY";
	constant string  COLOR:="blue";

	AlertStrategy base;
	float threshold;

	action init(integer id, string city, float threshold, IAlertManager manager) returns IAlertStrategy {    
		IAlertStrategy this := base.init(id, city, TYPE, COLOR, manager);
		this.check := check;

		self.threshold := threshold;
		return this;
	}

	//implementation of required actions
	action check(StationUpdate update) {
		log base.prefix+"Ratio" + update.ratio.toString() at DEBUG;
		if (not base.alerted and update.ratio > threshold) then {
			base.alert(update, "Ratio of " + update.ratio.formatFixed(2) + " exceeds limit " + threshold.toString());
		}
		else if (base.alerted and update.ratio <= threshold) then {
			base.clear();
		}
	}
} 0000004c C:\Users\moray\Development\cycle-monitor\monitors\strategy\UpperBoundary.mon
MONF 0000068a //Cycle Monitor, Copyright (C) 2016  M.B.Grieve
//This file is part of the Cycle Monitor example application.

//Cycle Monitor is free software: you can redistribute it and/or modify
//it under the terms of the GNU General Public License as published by
//the Free Software Foundation, either version 3 of the License, or
//(at your option) any later version.

//Cycle Monitor is distributed in the hope that it will be useful,
//but WITHOUT ANY WARRANTY; without even the implied warranty of
//MERCHANTABILITY or FITNESS FOR A PARTICULAR PURPOSE.  See the
//GNU General Public License for more details.

//You should have received a copy of the GNU General Public License
//along with City Monitor.  If not, see <http://www.gnu.org/licenses/>.

//Contact: moray.grieve@me.com

package com.jtech.alert;
using com.jtech.source.StationUpdate;

event LowerBoundary {
	constant string  TYPE :="LOWER_BOUNDARY";
	constant string  COLOR:="red";

	AlertStrategy base;
	float threshold;

	action init(integer id, string city, float threshold, IAlertManager manager) returns IAlertStrategy {    
		IAlertStrategy this := base.init(id, city, TYPE, COLOR, manager);
		this.check := check;

		self.threshold := threshold;
		return this;
	}

	//implementation of required actions
	action check(StationUpdate update) {
		log base.prefix+"Ratio=" + update.ratio.toString() at DEBUG;
		if (not base.alerted and update.ratio < threshold) then {
			base.alert(update, "Ratio of " + update.ratio.formatFixed(2) + " exceeds limit " + threshold.toString());
		}
		else if (base.alerted and update.ratio >= threshold) then {
			base.clear();
		}
	}
} 0000004c C:\Users\moray\Development\cycle-monitor\monitors\strategy\LowerBoundary.mon
MONF 000009d5 //Cycle Monitor, Copyright (C) 2016  M.B.Grieve
//This file is part of the Cycle Monitor example application.

//Cycle Monitor is free software: you can redistribute it and/or modify
//it under the terms of the GNU General Public License as published by
//the Free Software Foundation, either version 3 of the License, or
//(at your option) any later version.

//Cycle Monitor is distributed in the hope that it will be useful,
//but WITHOUT ANY WARRANTY; without even the implied warranty of
//MERCHANTABILITY or FITNESS FOR A PARTICULAR PURPOSE.  See the
//GNU General Public License for more details.

//You should have received a copy of the GNU General Public License
//along with City Monitor.  If not, see <http://www.gnu.org/licenses/>.

//Contact: moray.grieve@me.com

package com.jtech.alert;
using com.apama.aggregates.first;
using com.apama.aggregates.last;
using com.jtech.source.StationUpdate;

event Result { float first; float last; }
event Data { string city; integer id; float ratio;  }

event RateThreshold {
	constant string  TYPE :="RATE_THRESHOLD";
	constant string  COLOR:="yellow";

	AlertStrategy base;
	float threshold;
	float duration;
	StationUpdate current;

	action init(integer id, string city, float threshold, float duration, IAlertManager manager) returns IAlertStrategy {    
		IAlertStrategy this := base.init(id, city, TYPE, COLOR, manager);
		this.check := check;

		self.threshold := threshold;
		self.duration := duration;
		setupStreamListener();
		return this;
	}

	//implementation of required actions
	action check(StationUpdate update) {
		current := update;
		route Data(base.city, base.id, update.ratio);
	}

	action setupStreamListener() {
		Result result;
		from u in all Data(city=base.city, id=base.id) within duration
		  select Result(first(u.ratio),last(u.ratio)):result {
			float change:=0.0;
			if ( not (result.first=result.last or result.first.isNaN() or result.last.isNaN()) ) then {
				change := (result.last-result.first).abs(); 
				log base.prefix+"Change="+change.formatFixed(3)+",first="+result.first.toString()+",last="+result.last.toString() at DEBUG;
				checkForAlert(change);
			}
		}
	} 

	action checkForAlert(float change) {
		if (not base.alerted and change > threshold) then {
			base.alert(current, "Change of " +change.formatFixed(2) + " exceeds limit " + threshold.toString());
		}
		else if (base.alerted and change <= threshold) then {
			base.clear();
		}
	}
}
 0000004c C:\Users\moray\Development\cycle-monitor\monitors\strategy\RateThreshold.mon
MONF 00000da7 //Cycle Monitor, Copyright (C) 2016  M.B.Grieve
//This file is part of the Cycle Monitor example application.

//Cycle Monitor is free software: you can redistribute it and/or modify
//it under the terms of the GNU General Public License as published by
//the Free Software Foundation, either version 3 of the License, or
//(at your option) any later version.

//Cycle Monitor is distributed in the hope that it will be useful,
//but WITHOUT ANY WARRANTY; without even the implied warranty of
//MERCHANTABILITY or FITNESS FOR A PARTICULAR PURPOSE.  See the
//GNU General Public License for more details.

//You should have received a copy of the GNU General Public License
//along with City Monitor.  If not, see <http://www.gnu.org/licenses/>.

//Contact: moray.grieve@me.com

package com.jtech.alert;
using com.jtech.config.DBKey;
using com.jtech.config.CreateUpperBoundaryAlert;
using com.jtech.config.CreateLowerBoundaryAlert;
using com.jtech.config.CreateRateThresholdAlert;
using com.jtech.source.StationUpdate;

monitor AlertManager {
	IAlertManager this;
	com.jtech.util.KeyedDataViewHelper dvHelper;
	dictionary < DBKey, sequence<IAlertStrategy> > strategies;

	action onload {
		log "Alert manager loaded" at INFO;

		//register the alert dataview
		dvHelper.register((new Alert).iface());

		//initialise the interface
		this.addAlert := addAlert;
		this.clearAlert := clearAlert;

		//handle create requests
		createUpperBoundary();
		createLowerBoundary();
		createRateThreshold();

		//pass updates to the relevant strategies
		StationUpdate stationUpdate;
		on all StationUpdate():stationUpdate {
			DBKey key := DBKey(stationUpdate.city, stationUpdate.id);
			if (strategies.hasKey(key)) then {
				IAlertStrategy strategy; for strategy in strategies[key] {
					strategy.check(stationUpdate);
				}
			}
		}
	}

	action addAlert(IAlertStrategy strategy, StationUpdate update, string message) {
		strategy.pprint(message+", adding alert to strategy");
		dvHelper.add((Alert(update.city, update.id, update.name, update.lat, update.lng, 
		                    update.ratio, update.docked, update.empty, update.timestamp, 
		                    strategy.getType(), message, strategy.getColor())).iface());
	}

	action clearAlert(IAlertStrategy strategy) {
		strategy.pprint("Removing alert from strategy");
		dvHelper.remove(((new Alert).init(strategy.getCity(),strategy.getId(),strategy.getType())).iface());
	}

	action createUpperBoundary() {
		CreateUpperBoundaryAlert uba;
		on all CreateUpperBoundaryAlert():uba {
			DBKey key := getKey(uba.city, uba.id);
			strategies[key].append( (new UpperBoundary).init(uba.id, uba.city, uba.threshold, this) );
		}
	}

	action createLowerBoundary() {
		CreateLowerBoundaryAlert lba;
		on all CreateLowerBoundaryAlert():lba {
			DBKey key := getKey(lba.city, lba.id);
			strategies[key].append( (new LowerBoundary).init(lba.id, lba.city, lba.threshold, this) );
		}
	}

	action createRateThreshold() {
		CreateRateThresholdAlert rta;
		on all CreateRateThresholdAlert():rta {
			DBKey key := getKey(rta.city, rta.id);
			strategies[key].append( (new RateThreshold).init(rta.id, rta.city, rta.threshold, rta.duration, this) );
		}
	}

	action getKey(string city, integer id) returns DBKey {
		DBKey key := DBKey(city, id);
		if not strategies.hasKey(key) then {
			strategies.add(key, new sequence<IAlertStrategy> );
		}
		return key;
	}
} 0000004b C:\Users\moray\Development\cycle-monitor\monitors\strategy\AlertManager.mon
DISC 0000003c 6330853576403353934:6330572101426643278 from 127.0.0.1:53199
CONN 0000003c 6330853576329691470:6330572101352980814 from 127.0.0.1:53202
EVNT 000000bc 14826393442096512897 "",com.apama.scenario.RequestInstancesOnChannel("DV_StationAlert",3620350030317551746,"com.apama.scenario.private_3620350030317551745_1474016713320_InstanceDiscovery")
TIME 0000000e 1474016713.4,1
EVNT 000000c8 6330853576329691470 "",com.jtech.config.DBConfig("com.apama.adbc.JDBC","jdbc:sqlite:C:\\Users\\moray\\Development\\cycle-monitor\\test\\testcases\\CycleMonitor_cor_009\\Output\\win32\\store.db","","")
TIME 0000000e 1474016713.5,1
DISC 0000003c 6330853576329691470:6330572101352980814 from 127.0.0.1:53202
EVNT 0000006b 6330853567618646350 "",com.apama.database.DatabaseOperationAck(2,"com.apama.adbc.JDBC","",1474016711460000)
TIME 0000000e 1474016713.6,1
EVNT 0000008a 6330853567618646350 "",com.apama.adapters.AdapterConnectionOpened("NullCodec","ADBC-JDBC","ADBC_JDBC_1474016711460000","1474016711460000")
EVNT 000000e1 6330853567618646350 "",com.apama.database.ResultSchema(3,"com.apama.adbc.JDBC",1,["city","id","percent","duration"],{"city":"string","id":"string","percent":"string","duration":"string"},["city","id","percent","duration"],{})
EVNT 00000058 6330853567618646350 "",com.apama.database.QueryDone(3,"com.apama.adbc.JDBC","",0,0.0,{})
EVNT 000000df 6330853567618646350 "",com.apama.database.ResultSchema(4,"com.apama.adbc.JDBC",1,["city","id","upper","threshold"],{"city":"string","id":"integer","upper":"integer","threshold":"float"},["city","id","upper","threshold"],{})
EVNT 000000b2 6330853567618646350 "",com.apama.database.ResultEvent(4,"com.apama.adbc.JDBC",0,{"upper":"0","schemaID":"1","city":"London","_ADBCType":"ResultEvent","id":"1","threshold":"0.3"})
EVNT 000000b2 6330853567618646350 "",com.apama.database.ResultEvent(4,"com.apama.adbc.JDBC",0,{"upper":"1","schemaID":"1","city":"London","_ADBCType":"ResultEvent","id":"2","threshold":"0.6"})
EVNT 00000058 6330853567618646350 "",com.apama.database.QueryDone(4,"com.apama.adbc.JDBC","",2,0.0,{})
TIME 0000000e 1474016713.7,1
EVNT 0000006b 6330853567618646350 "",com.apama.database.DatabaseOperationAck(5,"com.apama.adbc.JDBC","",1474016711460000)
EVNT 0000008a 6330853567618646350 "",com.apama.adapters.AdapterConnectionClosed("NullCodec","ADBC-JDBC","ADBC_JDBC_1474016711460000","1474016711460000")
EVNT 0000007b 14826393442096512897 "",com.apama.scenario.RequestScenarios("com.apama.scenario.private_3620350030317551744_1474016711773")
CONN 0000003c 6330853576379236686:6330572101402526030 from 127.0.0.1:53205
EVNT 0000007c 6330853576379236686 "",com.jtech.source.StationUpdate("London",1,"Hyde Park",51.512303,-0.159988,0.09,2,20,false,1435476177)
EVNT 0000007f 6330853576379236686 "",com.jtech.source.StationUpdate("London",2,"Regent Street",51.512304,-0.15998,0.91,20,2,false,1435476177)
TIME 0000000c 1474016714,1
DISC 0000003c 6330853576379236686:6330572101402526030 from 127.0.0.1:53205
CONN 0000003c 6330853580693340494:6330572105716629838 from 127.0.0.1:53208
EVNT 00000035 6330853580693340494 "",com.jtech.alert.RemoveAlerts()
TIME 0000000e 1474016714.3,1
DISC 0000003c 6330853580693340494:6330572105716629838 from 127.0.0.1:53208
TIME 0000000e 1474016714.7,1
DISC 0000003c 6330853567618646350:6330572092641935694 from 127.0.0.1:53164
TIME 0000000e 1474016717.3,1
TIME 0000000e 1474016717.4,1
TIME 0000000e 1474016720.3,1
TIME 0000000e 1474016722.4,1
